/*--------------------------------*- C++ -*----------------------------------*\
| =========                 |                                                 |
| \\      /  F ield         | OpenFOAM: The Open Source CFD Toolbox           |
|  \\    /   O peration     | Version:  2.1.x                                 |
|   \\  /    A nd           | Web:      www.OpenFOAM.org                      |
|    \\/     M anipulation  |                                                 |
\*---------------------------------------------------------------------------*/
FoamFile
{
    version     2.0;
    format      ascii;
    class       dictionary;
    location    "constant/bottomAir";
    object      thermophysicalProperties;
}
// * * * * * * * * * * * * * * * * * * * * * * * * * * * * * * * * * * * * * //

thermoType hRhoThermo<pureMixture<constTransport<specieThermo<hConstThermo<incompressible>>>>>;

mixture
{
    specie
    {
        nMoles          1;
        molWeight       18;
    }
    equationOfState
    {
        rho             1000;
    }
    thermodynamics
    {
        Cp              4181;
        Hf              0;
    }
    transport
    {
        mu              1e-3;
        Pr              7;
    }
}


// ************************************************************************* //
